tests/corpus/controls/relay/relay_td21.dss
// Relay TD21 (time-distance) — the memory-ring-buffer distance element
// (Relay.pas TD21Logic: td21_pt/td21_stride circular history of pre-fault
// voltages/currents). Needs several sub-steps to FILL the ring before the
// fault so the memorized-voltage polarization is valid, hence duty mode with
// many small steps and the fault applied after the buffer primes. The relay
// trips on the in-reach fault and locks out. Feature-sensitive: shrinking
// Mphase below the fault distance stops the trip (probe-proven). Compared per
// step: full model + State/Normal + setting probes + event log + control queue.
clear
Set DefaultBaseFrequency=60

new circuit.rlytd21 basekv=12.47 phases=3 pu=1.0 bus1=src mvasc3=20000 mvasc1=21000
new linecode.kex41 r1=0.3061 x1=0.6270 r0=0.7735 x0=1.9373 c1=0 c0=0 units=mi

new line.thev bus1=src bus2=mvbus linecode=kex41 len=0.5 units=mi
new line.feed bus1=mvbus bus2=fbus linecode=kex41 len=1.2 units=mi
new line.tail bus1=fbus bus2=endb linecode=kex41 len=0.8 units=mi
new load.l bus1=endb phases=3 kv=12.47 kw=600 pf=0.95 model=1

new relay.rl type=td21 monitoredobj=line.feed monitoredterm=1
~ switchedobj=line.feed switchedterm=1
~ Z1MAG=0.6977 Z1ANG=63.98 Z0MAG=2.0860 Z0ANG=68.23 Mphase=1.5 Mground=1.5
~ phasetrip=400 delay=0.03 shots=1 recloseintervals=None eventlog=yes

new fault.f bus1=fbus.1.2.3 phases=3 ontime=0.10 r=0.001 temporary=no

set voltagebases=[12.47]
calcvoltagebases
set mode=duty stepsize=0.01 number=1 controlmode=time
